cases/ieee57/IEEE57.raw
0  100.000
 IEEE 57-bus test system
 generated from MATPOWER data by tools/make_cases.py
      1, 3,    55.000,    17.000,     0.000,     0.000,   1, 1.04000,   0.0000,'BUS-1       ', 100.0000,   1
      2, 2,     3.000,    88.000,     0.000,     0.000,   1, 1.01000,  -1.1800,'BUS-2       ', 100.0000,   1
      3, 2,    41.000,    21.000,     0.000,     0.000,   1, 0.98500,  -5.9700,'BUS-3       ', 100.0000,   1
      4, 1,     0.000,     0.000,     0.000,     0.000,   1, 0.98100,  -7.3200,'BUS-4       ', 100.0000,   1
      5, 1,    13.000,     4.000,     0.000,     0.000,   1, 0.97600,  -8.5200,'BUS-5       ', 100.0000,   1
      6, 2,    75.000,     2.000,     0.000,     0.000,   1, 0.98000,  -8.6500,'BUS-6       ', 100.0000,   1
      7, 1,     0.000,     0.000,     0.000,     0.000,   1, 0.98400,  -7.5800,'BUS-7       ', 100.0000,   1
      8, 2,   150.000,    22.000,     0.000,     0.000,   1, 1.00500,  -4.4500,'BUS-8       ', 100.0000,   1
      9, 2,   121.000,    26.000,     0.000,     0.000,   1, 0.98000,  -9.5600,'BUS-9       ', 100.0000,   1
     10, 1,     5.000,     2.000,     0.000,     0.000,   1, 0.98600, -11.4300,'BUS-10      ', 100.0000,   1
     11, 1,     0.000,     0.000,     0.000,     0.000,   1, 0.97400, -10.1700,'BUS-11      ', 100.0000,   1
     12, 2,   377.000,    24.000,     0.000,     0.000,   1, 1.01500, -10.4600,'BUS-12      ', 100.0000,   1
     13, 1,    18.000,     2.300,     0.000,     0.000,   1, 0.97900,  -9.7900,'BUS-13      ', 100.0000,   1
     14, 1,    10.500,     5.300,     0.000,     0.000,   1, 0.97000,  -9.3300,'BUS-14      ', 100.0000,   1
     15, 1,    22.000,     5.000,     0.000,     0.000,   1, 0.98800,  -7.1800,'BUS-15      ', 100.0000,   1
     16, 1,    43.000,     3.000,     0.000,     0.000,   1, 1.01300,  -8.8500,'BUS-16      ', 100.0000,   1
     17, 1,    42.000,     8.000,     0.000,     0.000,   1, 1.01700,  -5.3900,'BUS-17      ', 100.0000,   1
     18, 1,    27.200,     9.800,     0.000,    10.000,   1, 1.00100, -11.7100,'BUS-18      ', 100.0000,   1
     19, 1,     3.300,     0.600,     0.000,     0.000,   1, 0.97000, -13.2000,'BUS-19      ', 100.0000,   1
     20, 1,     2.300,     1.000,     0.000,     0.000,   1, 0.96400, -13.4100,'BUS-20      ', 100.0000,   1
     21, 1,     0.000,     0.000,     0.000,     0.000,   1, 1.00800, -12.8900,'BUS-21      ', 100.0000,   1
     22, 1,     0.000,     0.000,     0.000,     0.000,   1, 1.01000, -12.8400,'BUS-22      ', 100.0000,   1
     23, 1,     6.300,     2.100,     0.000,     0.000,   1, 1.00800, -12.9100,'BUS-23      ', 100.0000,   1
     24, 1,     0.000,     0.000,     0.000,     0.000,   1, 0.99900, -13.2500,'BUS-24      ', 100.0000,   1
     25, 1,     6.300,     3.200,     0.000,     5.900,   1, 0.98200, -18.1300,'BUS-25      ', 100.0000,   1
     26, 1,     0.000,     0.000,     0.000,     0.000,   1, 0.95900, -12.9500,'BUS-26      ', 100.0000,   1
     27, 1,     9.300,     0.500,     0.000,     0.000,   1, 0.98200, -11.4800,'BUS-27      ', 100.0000,   1
     28, 1,     4.600,     2.300,     0.000,     0.000,   1, 0.99700, -10.4500,'BUS-28      ', 100.0000,   1
     29, 1,    17.000,     2.600,     0.000,     0.000,   1, 1.01000,  -9.7500,'BUS-29      ', 100.0000,   1
     30, 1,     3.600,     1.800,     0.000,     0.000,   1, 0.96200, -18.6800,'BUS-30      ', 100.0000,   1
     31, 1,     5.800,     2.900,     0.000,     0.000,   1, 0.93600, -19.3400,'BUS-31      ', 100.0000,   1
     32, 1,     1.600,     0.800,     0.000,     0.000,   1, 0.94900, -18.4600,'BUS-32      ', 100.0000,   1
     33, 1,     3.800,     1.900,     0.000,     0.000,   1, 0.94700, -18.5000,'BUS-33      ', 100.0000,   1
     34, 1,     0.000,     0.000,     0.000,     0.000,   1, 0.95900, -14.1000,'BUS-34      ', 100.0000,   1
     35, 1,     6.000,     3.000,     0.000,     0.000,   1, 0.96600, -13.8600,'BUS-35      ', 100.0000,   1
     36, 1,     0.000,     0.000,     0.000,     0.000,   1, 0.97600, -13.5900,'BUS-36      ', 100.0000,   1
     37, 1,     0.000,     0.000,     0.000,     0.000,   1, 0.98500, -13.4100,'BUS-37      ', 100.0000,   1
     38, 1,    14.000,     7.000,     0.000,     0.000,   1, 1.01300, -12.7100,'BUS-38      ', 100.0000,   1
     39, 1,     0.000,     0.000,     0.000,     0.000,   1, 0.98300, -13.4600,'BUS-39      ', 100.0000,   1
     40, 1,     0.000,     0.000,     0.000,     0.000,   1, 0.97300, -13.6200,'BUS-40      ', 100.0000,   1
     41, 1,     6.300,     3.000,     0.000,     0.000,   1, 0.99600, -14.0500,'BUS-41      ', 100.0000,   1
     42, 1,     7.100,     4.400,     0.000,     0.000,   1, 0.96600, -15.5000,'BUS-42      ', 100.0000,   1
     43, 1,     2.000,     1.000,     0.000,     0.000,   1, 1.01000, -11.3300,'BUS-43      ', 100.0000,   1
     44, 1,    12.000,     1.800,     0.000,     0.000,   1, 1.01700, -11.8600,'BUS-44      ', 100.0000,   1
     45, 1,     0.000,     0.000,     0.000,     0.000,   1, 1.03600,  -9.2500,'BUS-45      ', 100.0000,   1
     46, 1,     0.000,     0.000,     0.000,     0.000,   1, 1.05000, -11.8900,'BUS-46      ', 100.0000,   1
     47, 1,    29.700,    11.600,     0.000,     0.000,   1, 1.03300, -12.4900,'BUS-47      ', 100.0000,   1
     48, 1,     0.000,     0.000,     0.000,     0.000,   1, 1.02700, -12.5900,'BUS-48      ', 100.0000,   1
     49, 1,    18.000,     8.500,     0.000,     0.000,   1, 1.03600, -12.9200,'BUS-49      ', 100.0000,   1
     50, 1,    21.000,    10.500,     0.000,     0.000,   1, 1.02300, -13.3900,'BUS-50      ', 100.0000,   1
     51, 1,    18.000,     5.300,     0.000,     0.000,   1, 1.05200, -12.5200,'BUS-51      ', 100.0000,   1
     52, 1,     4.900,     2.200,     0.000,     0.000,   1, 0.98000, -11.4700,'BUS-52      ', 100.0000,   1
     53, 1,    20.000,    10.000,     0.000,     6.300,   1, 0.97100, -12.2300,'BUS-53      ', 100.0000,   1
     54, 1,     4.100,     1.400,     0.000,     0.000,   1, 0.99600, -11.6900,'BUS-54      ', 100.0000,   1
     55, 1,     6.800,     3.400,     0.000,     0.000,   1, 1.03100, -10.7800,'BUS-55      ', 100.0000,   1
     56, 1,     7.600,     2.200,     0.000,     0.000,   1, 0.96800, -16.0400,'BUS-56      ', 100.0000,   1
     57, 1,     6.700,     2.000,     0.000,     0.000,   1, 0.96500, -16.5600,'BUS-57      ', 100.0000,   1
0 / END OF BUS DATA, BEGIN GENERATOR DATA
      1,'1 ',   128.900,   -16.100,   200.000,  -140.000, 1.04000,     0,   100.000,   0.00000,   1.00000,   0.00000,   0.00000,   1.00000,1,  100.0,   575.880,     0.000
      2,'1 ',     0.000,    -0.800,    50.000,   -17.000, 1.01000,     0,   100.000,   0.00000,   1.00000,   0.00000,   0.00000,   1.00000,1,  100.0,   100.000,     0.000
      3,'1 ',    40.000,    -1.000,    60.000,   -10.000, 0.98500,     0,   100.000,   0.00000,   1.00000,   0.00000,   0.00000,   1.00000,1,  100.0,   140.000,     0.000
      6,'1 ',     0.000,     0.800,    25.000,    -8.000, 0.98000,     0,   100.000,   0.00000,   1.00000,   0.00000,   0.00000,   1.00000,1,  100.0,   100.000,     0.000
      8,'1 ',   450.000,    62.100,   200.000,  -140.000, 1.00500,     0,   100.000,   0.00000,   1.00000,   0.00000,   0.00000,   1.00000,1,  100.0,   550.000,     0.000
      9,'1 ',     0.000,     2.200,     9.000,    -3.000, 0.98000,     0,   100.000,   0.00000,   1.00000,   0.00000,   0.00000,   1.00000,1,  100.0,   100.000,     0.000
     12,'1 ',   310.000,   128.500,   155.000,  -150.000, 1.01500,     0,   100.000,   0.00000,   1.00000,   0.00000,   0.00000,   1.00000,1,  100.0,   410.000,     0.000
0 / END OF GENERATOR DATA, BEGIN BRANCH DATA
      1,      2,'1 ',   0.00830,   0.02800,   0.12900,  9900.00,     0.00,     0.00, 0.00000,   0.000, 0.00000, 0.00000, 0.00000, 0.00000,1
      2,      3,'1 ',   0.02980,   0.08500,   0.08180,  9900.00,     0.00,     0.00, 0.00000,   0.000, 0.00000, 0.00000, 0.00000, 0.00000,1
      3,      4,'1 ',   0.01120,   0.03660,   0.03800,  9900.00,     0.00,     0.00, 0.00000,   0.000, 0.00000, 0.00000, 0.00000, 0.00000,1
      4,      5,'1 ',   0.06250,   0.13200,   0.02580,  9900.00,     0.00,     0.00, 0.00000,   0.000, 0.00000, 0.00000, 0.00000, 0.00000,1
      4,      6,'1 ',   0.04300,   0.14800,   0.03480,  9900.00,     0.00,     0.00, 0.00000,   0.000, 0.00000, 0.00000, 0.00000, 0.00000,1
      6,      7,'1 ',   0.02000,   0.10200,   0.02760,  9900.00,     0.00,     0.00, 0.00000,   0.000, 0.00000, 0.00000, 0.00000, 0.00000,1
      6,      8,'1 ',   0.03390,   0.17300,   0.04700,  9900.00,     0.00,     0.00, 0.00000,   0.000, 0.00000, 0.00000, 0.00000, 0.00000,1
      8,      9,'1 ',   0.00990,   0.05050,   0.05480,  9900.00,     0.00,     0.00, 0.00000,   0.000, 0.00000, 0.00000, 0.00000, 0.00000,1
      9,     10,'1 ',   0.03690,   0.16790,   0.04400,  9900.00,     0.00,     0.00, 0.00000,   0.000, 0.00000, 0.00000, 0.00000, 0.00000,1
      9,     11,'1 ',   0.02580,   0.08480,   0.02180,  9900.00,     0.00,     0.00, 0.00000,   0.000, 0.00000, 0.00000, 0.00000, 0.00000,1
      9,     12,'1 ',   0.06480,   0.29500,   0.07720,  9900.00,     0.00,     0.00, 0.00000,   0.000, 0.00000, 0.00000, 0.00000, 0.00000,1
      9,     13,'1 ',   0.04810,   0.15800,   0.04060,  9900.00,     0.00,     0.00, 0.00000,   0.000, 0.00000, 0.00000, 0.00000, 0.00000,1
     13,     14,'1 ',   0.01320,   0.04340,   0.01100,  9900.00,     0.00,     0.00, 0.00000,   0.000, 0.00000, 0.00000, 0.00000, 0.00000,1
     13,     15,'1 ',   0.02690,   0.08690,   0.02300,  9900.00,     0.00,     0.00, 0.00000,   0.000, 0.00000, 0.00000, 0.00000, 0.00000,1
      1,     15,'1 ',   0.01780,   0.09100,   0.09880,  9900.00,     0.00,     0.00, 0.00000,   0.000, 0.00000, 0.00000, 0.00000, 0.00000,1
      1,     16,'1 ',   0.04540,   0.20600,   0.05460,  9900.00,     0.00,     0.00, 0.00000,   0.000, 0.00000, 0.00000, 0.00000, 0.00000,1
      1,     17,'1 ',   0.02380,   0.10800,   0.02860,  9900.00,     0.00,     0.00, 0.00000,   0.000, 0.00000, 0.00000, 0.00000, 0.00000,1
      3,     15,'1 ',   0.01620,   0.05300,   0.05440,  9900.00,     0.00,     0.00, 0.00000,   0.000, 0.00000, 0.00000, 0.00000, 0.00000,1
      4,     18,'1 ',   0.00000,   0.55500,   0.00000,  9900.00,     0.00,     0.00, 0.97000,   0.000, 0.00000, 0.00000, 0.00000, 0.00000,1
      4,     18,'2 ',   0.00000,   0.43000,   0.00000,  9900.00,     0.00,     0.00, 0.97800,   0.000, 0.00000, 0.00000, 0.00000, 0.00000,1
      5,      6,'1 ',   0.03020,   0.06410,   0.01240,  9900.00,     0.00,     0.00, 0.00000,   0.000, 0.00000, 0.00000, 0.00000, 0.00000,1
      7,      8,'1 ',   0.01390,   0.07120,   0.01940,  9900.00,     0.00,     0.00, 0.00000,   0.000, 0.00000, 0.00000, 0.00000, 0.00000,1
     10,     12,'1 ',   0.02770,   0.12620,   0.03280,  9900.00,     0.00,     0.00, 0.00000,   0.000, 0.00000, 0.00000, 0.00000, 0.00000,1
     11,     13,'1 ',   0.02230,   0.07320,   0.01880,  9900.00,     0.00,     0.00, 0.00000,   0.000, 0.00000, 0.00000, 0.00000, 0.00000,1
     12,     13,'1 ',   0.01780,   0.05800,   0.06040,  9900.00,     0.00,     0.00, 0.00000,   0.000, 0.00000, 0.00000, 0.00000, 0.00000,1
     12,     16,'1 ',   0.01800,   0.08130,   0.02160,  9900.00,     0.00,     0.00, 0.00000,   0.000, 0.00000, 0.00000, 0.00000, 0.00000,1
     12,     17,'1 ',   0.03970,   0.17900,   0.04760,  9900.00,     0.00,     0.00, 0.00000,   0.000, 0.00000, 0.00000, 0.00000, 0.00000,1
     14,     15,'1 ',   0.01710,   0.05470,   0.01480,  9900.00,     0.00,     0.00, 0.00000,   0.000, 0.00000, 0.00000, 0.00000, 0.00000,1
     18,     19,'1 ',   0.46100,   0.68500,   0.00000,  9900.00,     0.00,     0.00, 0.00000,   0.000, 0.00000, 0.00000, 0.00000, 0.00000,1
     19,     20,'1 ',   0.28300,   0.43400,   0.00000,  9900.00,     0.00,     0.00, 0.00000,   0.000, 0.00000, 0.00000, 0.00000, 0.00000,1
     21,     20,'1 ',   0.00000,   0.77670,   0.00000,  9900.00,     0.00,     0.00, 1.04300,   0.000, 0.00000, 0.00000, 0.00000, 0.00000,1
     21,     22,'1 ',   0.07360,   0.11700,   0.00000,  9900.00,     0.00,     0.00, 0.00000,   0.000, 0.00000, 0.00000, 0.00000, 0.00000,1
     22,     23,'1 ',   0.00990,   0.01520,   0.00000,  9900.00,     0.00,     0.00, 0.00000,   0.000, 0.00000, 0.00000, 0.00000, 0.00000,1
     23,     24,'1 ',   0.16600,   0.25600,   0.00840,  9900.00,     0.00,     0.00, 0.00000,   0.000, 0.00000, 0.00000, 0.00000, 0.00000,1
     24,     25,'1 ',   0.00000,   1.18200,   0.00000,  9900.00,     0.00,     0.00, 1.00000,   0.000, 0.00000, 0.00000, 0.00000, 0.00000,1
     24,     25,'2 ',   0.00000,   1.23000,   0.00000,  9900.00,     0.00,     0.00, 1.00000,   0.000, 0.00000, 0.00000, 0.00000, 0.00000,1
     24,     26,'1 ',   0.00000,   0.04730,   0.00000,  9900.00,     0.00,     0.00, 1.04300,   0.000, 0.00000, 0.00000, 0.00000, 0.00000,1
     26,     27,'1 ',   0.16500,   0.25400,   0.00000,  9900.00,     0.00,     0.00, 0.00000,   0.000, 0.00000, 0.00000, 0.00000, 0.00000,1
     27,     28,'1 ',   0.06180,   0.09540,   0.00000,  9900.00,     0.00,     0.00, 0.00000,   0.000, 0.00000, 0.00000, 0.00000, 0.00000,1
     28,     29,'1 ',   0.04180,   0.05870,   0.00000,  9900.00,     0.00,     0.00, 0.00000,   0.000, 0.00000, 0.00000, 0.00000, 0.00000,1
      7,     29,'1 ',   0.00000,   0.06480,   0.00000,  9900.00,     0.00,     0.00, 0.96700,   0.000, 0.00000, 0.00000, 0.00000, 0.00000,1
     25,     30,'1 ',   0.13500,   0.20200,   0.00000,  9900.00,     0.00,     0.00, 0.00000,   0.000, 0.00000, 0.00000, 0.00000, 0.00000,1
     30,     31,'1 ',   0.32600,   0.49700,   0.00000,  9900.00,     0.00,     0.00, 0.00000,   0.000, 0.00000, 0.00000, 0.00000, 0.00000,1
     31,     32,'1 ',   0.50700,   0.75500,   0.00000,  9900.00,     0.00,     0.00, 0.00000,   0.000, 0.00000, 0.00000, 0.00000, 0.00000,1
     32,     33,'1 ',   0.03920,   0.03600,   0.00000,  9900.00,     0.00,     0.00, 0.00000,   0.000, 0.00000, 0.00000, 0.00000, 0.00000,1
     34,     32,'1 ',   0.00000,   0.95300,   0.00000,  9900.00,     0.00,     0.00, 0.97500,   0.000, 0.00000, 0.00000, 0.00000, 0.00000,1
     34,     35,'1 ',   0.05200,   0.07800,   0.00320,  9900.00,     0.00,     0.00, 0.00000,   0.000, 0.00000, 0.00000, 0.00000, 0.00000,1
     35,     36,'1 ',   0.04300,   0.05370,   0.00160,  9900.00,     0.00,     0.00, 0.00000,   0.000, 0.00000, 0.00000, 0.00000, 0.00000,1
     36,     37,'1 ',   0.02900,   0.03660,   0.00000,  9900.00,     0.00,     0.00, 0.00000,   0.000, 0.00000, 0.00000, 0.00000, 0.00000,1
     37,     38,'1 ',   0.06510,   0.10090,   0.00200,  9900.00,     0.00,     0.00, 0.00000,   0.000, 0.00000, 0.00000, 0.00000, 0.00000,1
     37,     39,'1 ',   0.02390,   0.03790,   0.00000,  9900.00,     0.00,     0.00, 0.00000,   0.000, 0.00000, 0.00000, 0.00000, 0.00000,1
     36,     40,'1 ',   0.03000,   0.04660,   0.00000,  9900.00,     0.00,     0.00, 0.00000,   0.000, 0.00000, 0.00000, 0.00000, 0.00000,1
     22,     38,'1 ',   0.01920,   0.02950,   0.00000,  9900.00,     0.00,     0.00, 0.00000,   0.000, 0.00000, 0.00000, 0.00000, 0.00000,1
     11,     41,'1 ',   0.00000,   0.74900,   0.00000,  9900.00,     0.00,     0.00, 0.95500,   0.000, 0.00000, 0.00000, 0.00000, 0.00000,1
     41,     42,'1 ',   0.20700,   0.35200,   0.00000,  9900.00,     0.00,     0.00, 0.00000,   0.000, 0.00000, 0.00000, 0.00000, 0.00000,1
     41,     43,'1 ',   0.00000,   0.41200,   0.00000,  9900.00,     0.00,     0.00, 0.00000,   0.000, 0.00000, 0.00000, 0.00000, 0.00000,1
     38,     44,'1 ',   0.02890,   0.05850,   0.00200,  9900.00,     0.00,     0.00, 0.00000,   0.000, 0.00000, 0.00000, 0.00000, 0.00000,1
     15,     45,'1 ',   0.00000,   0.10420,   0.00000,  9900.00,     0.00,     0.00, 0.95500,   0.000, 0.00000, 0.00000, 0.00000, 0.00000,1
     14,     46,'1 ',   0.00000,   0.07350,   0.00000,  9900.00,     0.00,     0.00, 0.90000,   0.000, 0.00000, 0.00000, 0.00000, 0.00000,1
     46,     47,'1 ',   0.02300,   0.06800,   0.00320,  9900.00,     0.00,     0.00, 0.00000,   0.000, 0.00000, 0.00000, 0.00000, 0.00000,1
     47,     48,'1 ',   0.01820,   0.02330,   0.00000,  9900.00,     0.00,     0.00, 0.00000,   0.000, 0.00000, 0.00000, 0.00000, 0.00000,1
     48,     49,'1 ',   0.08340,   0.12900,   0.00480,  9900.00,     0.00,     0.00, 0.00000,   0.000, 0.00000, 0.00000, 0.00000, 0.00000,1
     49,     50,'1 ',   0.08010,   0.12800,   0.00000,  9900.00,     0.00,     0.00, 0.00000,   0.000, 0.00000, 0.00000, 0.00000, 0.00000,1
     50,     51,'1 ',   0.13860,   0.22000,   0.00000,  9900.00,     0.00,     0.00, 0.00000,   0.000, 0.00000, 0.00000, 0.00000, 0.00000,1
     10,     51,'1 ',   0.00000,   0.07120,   0.00000,  9900.00,     0.00,     0.00, 0.93000,   0.000, 0.00000, 0.00000, 0.00000, 0.00000,1
     13,     49,'1 ',   0.00000,   0.19100,   0.00000,  9900.00,     0.00,     0.00, 0.89500,   0.000, 0.00000, 0.00000, 0.00000, 0.00000,1
     29,     52,'1 ',   0.14420,   0.18700,   0.00000,  9900.00,     0.00,     0.00, 0.00000,   0.000, 0.00000, 0.00000, 0.00000, 0.00000,1
     52,     53,'1 ',   0.07620,   0.09840,   0.00000,  9900.00,     0.00,     0.00, 0.00000,   0.000, 0.00000, 0.00000, 0.00000, 0.00000,1
     53,     54,'1 ',   0.18780,   0.23200,   0.00000,  9900.00,     0.00,     0.00, 0.00000,   0.000, 0.00000, 0.00000, 0.00000, 0.00000,1
     54,     55,'1 ',   0.17320,   0.22650,   0.00000,  9900.00,     0.00,     0.00, 0.00000,   0.000, 0.00000, 0.00000, 0.00000, 0.00000,1
     11,     43,'1 ',   0.00000,   0.15300,   0.00000,  9900.00,     0.00,     0.00, 0.95800,   0.000, 0.00000, 0.00000, 0.00000, 0.00000,1
     44,     45,'1 ',   0.06240,   0.12420,   0.00400,  9900.00,     0.00,     0.00, 0.00000,   0.000, 0.00000, 0.00000, 0.00000, 0.00000,1
     40,     56,'1 ',   0.00000,   1.19500,   0.00000,  9900.00,     0.00,     0.00, 0.95800,   0.000, 0.00000, 0.00000, 0.00000, 0.00000,1
     56,     41,'1 ',   0.55300,   0.54900,   0.00000,  9900.00,     0.00,     0.00, 0.00000,   0.000, 0.00000, 0.00000, 0.00000, 0.00000,1
     56,     42,'1 ',   0.21250,   0.35400,   0.00000,  9900.00,     0.00,     0.00, 0.00000,   0.000, 0.00000, 0.00000, 0.00000, 0.00000,1
     39,     57,'1 ',   0.00000,   1.35500,   0.00000,  9900.00,     0.00,     0.00, 0.98000,   0.000, 0.00000, 0.00000, 0.00000, 0.00000,1
     57,     56,'1 ',   0.17400,   0.26000,   0.00000,  9900.00,     0.00,     0.00, 0.00000,   0.000, 0.00000, 0.00000, 0.00000, 0.00000,1
     38,     49,'1 ',   0.11500,   0.17700,   0.00300,  9900.00,     0.00,     0.00, 0.00000,   0.000, 0.00000, 0.00000, 0.00000, 0.00000,1
     38,     48,'1 ',   0.03120,   0.04820,   0.00000,  9900.00,     0.00,     0.00, 0.00000,   0.000, 0.00000, 0.00000, 0.00000, 0.00000,1
      9,     55,'1 ',   0.00000,   0.12050,   0.00000,  9900.00,     0.00,     0.00, 0.94000,   0.000, 0.00000, 0.00000, 0.00000, 0.00000,1
0 / END OF BRANCH DATA, BEGIN TRANSFORMER ADJUSTMENT DATA
0 / END OF TRANSFORMER ADJUSTMENT DATA, BEGIN AREA DATA
   1,      1,     0.0,  3.000,'AREA_1      '
0 / END OF AREA DATA, BEGIN TWO-TERMINAL DC DATA
0 / END OF TWO-TERMINAL DC DATA, BEGIN SWITCHED SHUNT DATA
0 / END OF SWITCHED SHUNT DATA, BEGIN IMPEDANCE CORRECTION DATA
0 / END OF IMPEDANCE CORRECTION DATA, BEGIN MULTI-TERMINAL DC DATA
0 / END OF MULTI-TERMINAL DC DATA, BEGIN MULTI-SECTION LINE DATA
0 / END OF MULTI-SECTION LINE DATA, BEGIN ZONE DATA
    1,'ZONE_1      '
0 / END OF ZONE DATA, BEGIN INTER-AREA TRANSFER DATA
0 / END OF INTER-AREA TRANSFER DATA, BEGIN OWNER DATA
    1,'OWNER_1     '
0 / END OF OWNER DATA, BEGIN FACTS DEVICE DATA
0 / END OF FACTS DEVICE DATA
