cases/ieee57/reference.csv
bus_id,vm_pu,va_deg,matpower_vm_pu,matpower_va_deg
1,1.040000,0.0000,1.040000,0.0000
2,1.010000,-1.1882,1.010000,-1.1800
3,0.985000,-5.9881,0.985000,-5.9700
4,0.980780,-7.3374,0.981000,-7.3200
5,0.976499,-8.5464,0.976000,-8.5200
6,0.980000,-8.6741,0.980000,-8.6500
7,0.984202,-7.6014,0.984000,-7.5800
8,1.005000,-4.4779,1.005000,-4.4500
9,0.980000,-9.5847,0.980000,-9.5600
10,0.986242,-11.4497,0.986000,-11.4300
11,0.973962,-10.1932,0.974000,-10.1700
12,1.015000,-10.4712,1.015000,-10.4600
13,0.978887,-9.8035,0.979000,-9.7900
14,0.970177,-9.3503,0.970000,-9.3300
15,0.988032,-7.1902,0.988000,-7.1800
16,1.013369,-8.8589,1.013000,-8.8500
17,1.017454,-5.3959,1.017000,-5.3900
18,1.000659,-11.7296,1.001000,-11.7100
19,0.970158,-13.2265,0.970000,-13.2000
20,0.963790,-13.4443,0.964000,-13.4100
21,1.008498,-12.9290,1.008000,-12.8900
22,1.009744,-12.8743,1.010000,-12.8400
23,1.008330,-12.9396,1.008000,-12.9100
24,0.999233,-13.2921,0.999000,-13.2500
25,0.982521,-18.1732,0.982000,-18.1300
26,0.958818,-12.9813,0.959000,-12.9500
27,0.981541,-11.5136,0.982000,-11.4800
28,0.996678,-10.4816,0.997000,-10.4500
29,1.010220,-9.7718,1.010000,-9.7500
30,0.962661,-18.7196,0.962000,-18.6800
31,0.935932,-19.3838,0.936000,-19.3400
32,0.949875,-18.5123,0.949000,-18.4600
33,0.947581,-18.5520,0.947000,-18.5000
34,0.959200,-14.1490,0.959000,-14.1000
35,0.966212,-13.9062,0.966000,-13.8600
36,0.975828,-13.6348,0.976000,-13.5900
37,0.984886,-13.4459,0.985000,-13.4100
38,1.012812,-12.7346,1.013000,-12.7100
39,0.982823,-13.4910,0.983000,-13.4600
40,0.972811,-13.6582,0.973000,-13.6200
41,0.996217,-14.0767,0.996000,-14.0500
42,0.966526,-15.5328,0.966000,-15.5000
43,1.009564,-11.3544,1.010000,-11.3300
44,1.016799,-11.8565,1.017000,-11.8600
45,1.036005,-9.2701,1.036000,-9.2500
46,1.059797,-11.1161,1.050000,-11.8900
47,1.033251,-12.5116,1.033000,-12.4900
48,1.027351,-12.6107,1.027000,-12.5900
49,1.036246,-12.9361,1.036000,-12.9200
50,1.023336,-13.4127,1.023000,-13.3900
51,1.052262,-12.5334,1.052000,-12.5200
52,0.980368,-11.4976,0.980000,-11.4700
53,0.970946,-12.2526,0.971000,-12.2300
54,0.996319,-11.7097,0.996000,-11.6900
55,1.030786,-10.8011,1.031000,-10.7800
56,0.968369,-16.0651,0.968000,-16.0400
57,0.964826,-16.5837,0.965000,-16.5600
